*Node, NSET=Nall
1, -34.925, 63.5, 9.525
2, -41.275, 57.15, 9.525
3, -34.925, 63.5, -9.525
4, -41.275, 57.15, -9.525
5, -41.275, -57.15, 9.525
6, -34.925, -63.5, 9.525
7, -41.275, -57.15, -9.525
8, -34.925, -63.5, -9.525
9, 41.275, 57.15, 9.525
10, 34.925, 63.5, 9.525
11, 41.275, 57.15, -9.525
12, 34.925, 63.5, -9.525
13, 34.925, -63.5, 9.525
14, 41.275, -57.15, 9.525
15, 34.925, -63.5, -9.525
16, 41.275, -57.15, -9.525
17, -41.275, 7.9375, 9.525
18, -41.275, -7.9375, 9.525
19, 41.275, 25.4, 9.525
20, 41.275, 25.4, 26.98242
** ... 1634 like lines cut
*Element, TYPE=C3D10, ELSET=Eall
744, 1036, 1043, 240, 1034, 1072, 1164, 1165, 1088, 1089, 1166
745, 868, 903, 908, 1163, 1168, 934, 1167, 1170, 1169, 1171
746, 872, 224, 225, 240, 885, 234, 886, 1172, 862, 861
747, 903, 906, 909, 868, 933, 929, 937, 1168, 1173, 1174
748, 906, 871, 909, 868, 1176, 1175, 929, 1173, 898, 1174
749, 909, 903, 868, 1163, 937, 1168, 1174, 1177, 1169, 1170
750, 904, 871, 906, 868, 1178, 1176, 931, 1179, 898, 1173
751, 903, 904, 906, 868, 932, 931, 933, 1168, 1179, 1173
752, 872, 874, 868, 1163, 890, 902, 900, 1181, 1180, 1170
753, 907, 903, 909, 1163, 935, 937, 925, 1182, 1169, 1177
754, 908, 904, 903, 868, 914, 932, 934, 1167, 1179, 1168
755, 976, 39, 184, 971, 1185, 1183, 1184, 1021, 1186, 1187
756, 972, 976, 971, 39, 1010, 1021, 1007, 1188, 1185, 1186
757, 871, 874, 909, 868, 894, 1189, 1175, 898, 902, 1174
758, 868, 908, 873, 1163, 1167, 1190, 899, 1170, 1171, 1191
759, 874, 909, 868, 1163, 1189, 1174, 902, 1180, 1177, 1170
760, 261, 972, 971, 39, 1193, 1007, 1192, 262, 1188, 1186
761, 873, 870, 868, 1163, 883, 901, 899, 1191, 1194, 1170
762, 904, 869, 871, 868, 1195, 896, 1178, 1179, 897, 898
763, 874, 184, 39, 971, 1197, 1183, 1196, 1198, 1187, 1186
** ... 759 like lines cut



***********************************************************
** Element sets for materials and FEM element type (solid, shell, beam, fluid)
** written by write_element_sets_material_and_femelement_type function
*ELSET,ELSET=SolidMaterialSolid
Eall

***********************************************************
** Node sets for fixed constraint
** written by write_node_sets_constraints_fixed function
** FemConstraintFixed
*NSET,NSET=FemConstraintFixed
512,
513,
514,
3,
4,
517,
518,
7,
8,
521,
522,
11,
12,
525,
526,
15,
16,
529,
530,
515,
** ... 221 like lines cut

***********************************************************
** Materials
** written by write_materials function
** Young's modulus unit is MPa = N/mm2
** FreeCAD material name: CalculiX-Steel
** SolidMaterial
*MATERIAL, NAME=SolidMaterial
*ELASTIC
210000, 0.300

***********************************************************
** Sections
** written by write_femelementsets function
*SOLID SECTION, ELSET=SolidMaterialSolid, MATERIAL=SolidMaterial

***********************************************************
** At least one step is needed to run an CalculiX analysis of FreeCAD
** written by write_step_begin function
*STEP
*STATIC


***********************************************************
** Fixed Constraints
** written by write_constraints_fixed function
** FemConstraintFixed
*BOUNDARY
FemConstraintFixed,1
FemConstraintFixed,2
FemConstraintFixed,3


***********************************************************
** Node loads Constraints
** written by write_constraints_force function
*CLOAD
** FemConstraintForce
** node loads on shape: Part__Feature:Face16
37,3,-0.0000000000000E+00
199,3,-0.0000000000000E+00
200,3,-0.0000000000000E+00
201,3,-0.0000000000000E+00
202,3,-0.0000000000000E+00
204,3,-0.0000000000000E+00
205,3,-0.0000000000000E+00
206,3,-0.0000000000000E+00
207,3,-0.0000000000000E+00
208,3,-3.4816178378460E-02
209,3,-3.4816178378460E-02
211,3,-3.3714262125289E-02
214,3,-3.2920206324632E-02
216,3,-3.3714262125289E-02
217,3,-3.3223508651519E-02
903,3,-0.0000000000000E+00
904,3,-0.0000000000000E+00
905,3,-0.0000000000000E+00
906,3,-0.0000000000000E+00
907,3,-0.0000000000000E+00
** ... 28 like lines cut



***********************************************************
** Outputs --> frd file
** written by write_outputs_types function
*NODE FILE
U
*EL FILE
S, E
** outputs --> dat file
*NODE PRINT , NSET=Nall 
U 
*EL PRINT , ELSET=Eall 
S 

***********************************************************
** written by write_step_end function
*END STEP 

***********************************************************
** CalculiX Input file
** written by write_footer function
**   written by    --> FreeCAD 0.17.10885 (Git)
**   written on    --> Wed Apr 26 10:28:19 2017
**   file name     --> onshape.fcstd
**   analysis name --> Analysis
**
**
**
**   Units
**
**   Geometry (mesh data)        --> mm
**   Materials (Young's modulus) --> N/mm2 = MPa
**   Loads (nodal loads)         --> N
**
